data/input/matpower/sample_944.m
function mpc = powergrid
mpc.version = '2';
mpc.baseMVA = 100;
mpc.bus = [
	1	1	144.612615	87.160547	0	-400	1	1.012272	4.148178	130	1	1.100000	0.900000;
	2	1	92.008180	2.321827	0	0	1	1.034293	6.849508	130	1	1.100000	0.900000;
	3	1	98.733643	30.781561	0	0	1	1.008386	8.814529	130	1	1.100000	0.900000;
	4	1	583.373238	324.640847	0	0	1	0.969699	-5.314245	130	1	1.100000	0.900000;
	5	1	93.608037	60.419491	0	0	1	0.991260	-10.745241	130	1	1.100000	0.900000;
	6	1	283.958561	-142.304782	0	0	1	1.085683	-26.576370	130	1	1.100000	0.900000;
	7	1	218.952303	10.228657	0	0	1	0.999117	-9.612588	130	1	1.100000	0.900000;
	8	1	179.997266	82.936236	0	0	1	1.026145	-11.912176	130	1	1.100000	0.900000;
	9	1	304.454315	122.896230	0	0	1	1.019158	-10.041508	130	1	1.100000	0.900000;
	10	1	194.534580	111.882806	0	0	1	1.029960	-5.131097	220	1	1.100000	0.900000;
	11	1	256.167319	169.997300	0	0	1	0.985541	2.811446	220	1	1.100000	0.900000;
	12	1	1033.075321	391.170631	0	-400	1	0.905236	-10.192629	400	1	1.100000	0.900000;
	13	1	184.754376	94.526445	0	0	1	0.928170	-12.250636	400	1	1.100000	0.900000;
	14	1	156.495947	60.040590	0	0	1	1.074621	-7.067209	400	1	1.100000	0.900000;
	15	1	1033.454453	347.441841	0	0	1	1.016460	-14.140952	400	1	1.100000	0.900000;
	16	1	740.678993	67.597120	0	0	1	1.014976	-12.462545	400	1	1.100000	0.900000;
	17	1	169.367211	106.216850	0	0	1	1.007586	-11.020709	400	1	1.100000	0.900000;
	18	1	56.620595	-12.608006	0	0	1	1.009138	-7.475885	400	1	1.100000	0.900000;
	19	1	376.892781	188.897926	0	0	1	1.002970	-2.755607	400	1	1.100000	0.900000;
	20	1	79.659399	51.334802	0	0	1	1.056855	0.776109	400	1	1.100000	0.900000;
	21	1	25.469274	15.297782	0	0	1	1.045583	5.213221	400	1	1.100000	0.900000;
	22	1	4.447302	0.899940	0	0	1	1.038020	8.331293	400	1	1.100000	0.900000;
	23	1	0	0	0	-100	1	0.941921	4.865278	400	1	1.100000	0.900000;
	24	1	0	0	0	0	1	1.018074	8.103849	130	1	1.100000	0.900000;
	25	1	0	0	0	0	1	0.994750	8.168057	130	1	1.100000	0.900000;
	26	1	0	0	0	0	1	0.942598	3.783689	400	1	1.100000	0.900000;
	27	1	0	0	0	0	1	1.025648	-4.556225	400	1	1.100000	0.900000;
	28	1	0	0	0	0	1	0.948487	-2.772013	400	1	1.100000	0.900000;
	29	1	0	0	0	0	1	1.027360	-7.494349	400	1	1.100000	0.900000;
	30	1	0	0	0	0	1	0.950060	-20.538987	400	1	1.100000	0.900000;
	31	1	0	0	0	0	1	1.011180	-5.731875	400	1	1.100000	0.900000;
	32	1	0	0	0	0	1	1.041649	-8.123569	400	1	1.100000	0.900000;
	33	1	0	0	0	0	1	1.041649	-8.123569	400	1	1.100000	0.900000;
	34	1	0	0	0	0	1	0.992257	-18.538447	400	1	1.100000	0.900000;
	35	1	0	0	0	0	1	0.984609	-13.390385	400	1	1.100000	0.900000;
	36	1	0	0	0	0	1	1.031776	-11.146481	400	1	1.100000	0.900000;
	37	1	0	0	0	0	1	1.026111	-8.859114	400	1	1.100000	0.900000;
	38	2	0	0	0	0	1	1	12.258656	15	1	1.100000	0.900000;
	39	2	0	0	0	0	1	1	14.158858	15	1	1.100000	0.900000;
	40	2	0	0	0	0	1	0	8.103849	15	1	1.100000	0.900000;
	41	2	0	0	0	0	1	1	11.445742	15	1	1.100000	0.900000;
	42	2	0	0	0	0	1	0	-5.314245	15	1	1.100000	0.900000;
	43	2	0	0	0	0	1	0	-26.576370	15	1	1.100000	0.900000;
	44	2	0	0	0	0	1	1	6.961311	15	1	1.100000	0.900000;
	45	2	0	0	0	0	1	1	8.489011	15	1	1.100000	0.900000;
	46	2	0	0	0	0	1	1	9.720841	15	1	1.100000	0.900000;
	47	2	0	0	0	0	1	1	10.806716	15	1	1.100000	0.900000;
	48	2	0	0	0	0	1	1	0.898654	15	1	1.100000	0.900000;
	49	2	0	0	0	0	1	1	-3.409039	15	1	1.100000	0.900000;
	50	2	0	0	0	0	1	0	-7.067209	15	1	1.100000	0.900000;
	51	2	0	0	0	0	1	0	-14.140952	15	1	1.100000	0.900000;
	52	3	0	0	0	0	1	1	0	15	1	1.000000	1.000000;
	53	2	0	0	0	0	1	1	-1.931481	15	1	1.100000	0.900000;
	54	2	0	0	0	0	1	1	2.823110	15	1	1.100000	0.900000;
	55	2	0	0	0	0	1	1	2.823110	15	1	1.100000	0.900000;
	56	2	0	0	0	0	1	1	10.563794	15	1	1.100000	0.900000;
	57	2	0	0	0	0	1	1	13.720961	15	1	1.100000	0.900000;
	58	2	0	0	0	0	1	0	8.331293	15	1	1.100000	0.900000;
	59	2	0	0	0	0	1	1	-4.009494	15	1	1.100000	0.900000;
	60	2	0	0	0	0	1	0	-12.250636	15	1	1.100000	0.900000;
	61	2	0	0	0	0	1	0	-10.745241	15	1	1.100000	0.900000;
];
mpc.gen = [
	52	0	0	1840.000000	-540.000000	1	1	1	2800.000000	10.000000	0	0	0	0	0	0	0	0	0	0	0;
	38	520.000000	0	720.000000	-720.000000	1	100	1	720.000000	10.000000	0	0	0	0	0	0	0	0	0	0	0;
	39	375.688069	0	540.000000	-540.000000	1	100	1	540.000000	10.000000	0	0	0	0	0	0	0	0	0	0	0;
	40	0	0	630.000000	-630.000000	0	100	0	630.000000	10.000000	0	0	0	0	0	0	0	0	0	0	0;
	41	227.500000	0	540.000000	-540.000000	1	100	1	540.000000	10.000000	0	0	0	0	0	0	0	0	0	0	0;
	42	0	0	325.000000	-225.000000	0	100	0	475.000000	10.000000	0	0	0	0	0	0	0	0	0	0	0;
	43	0	0	560.000000	-360.000000	0	100	0	560.000000	10.000000	0	0	0	0	0	0	0	0	0	0	0;
	44	380.000000	0	360.000000	-280.000000	1	100	1	380.000000	10.000000	0	0	0	0	0	0	0	0	0	0	0;
	45	552.500000	0	965.000000	-765.000000	1	100	1	965.000000	10.000000	0	0	0	0	0	0	0	0	0	0	0;
	46	650.000000	0	900.000000	-900.000000	1	100	1	900.000000	10.000000	0	0	0	0	0	0	0	0	0	0	0;
	47	520.000000	0	720.000000	-720.000000	1	100	1	720.000000	10.000000	0	0	0	0	0	0	0	0	0	0	0;
	48	195.000000	0	570.000000	-370.000000	1	100	1	570.000000	10.000000	0	0	0	0	0	0	0	0	0	0	0;
	49	95.627642	0	515.000000	-415.000000	1	100	1	575.000000	10.000000	0	0	0	0	0	0	0	0	0	0	0;
	50	0	0	570.000000	-570.000000	0	100	0	0.000000	-0.000000	0	0	0	0	0	0	0	0	0	0	0;
	51	0	0	630.000000	-630.000000	0	100	0	630.000000	10.000000	0	0	0	0	0	0	0	0	0	0	0;
	53	390.000000	0	580.000000	-540.000000	1	100	1	540.000000	10.000000	0	0	0	0	0	0	0	0	0	0	0;
	54	455.000000	0	630.000000	-630.000000	1	100	1	630.000000	10.000000	0	0	0	0	0	0	0	0	0	0	0;
	55	455.000000	0	630.000000	-630.000000	1	100	1	630.000000	10.000000	0	0	0	0	0	0	0	0	0	0	0;
	56	390.000000	0	540.000000	-540.000000	1	100	1	540.000000	10.000000	0	0	0	0	0	0	0	0	0	0	0;
	57	390.000000	0	540.000000	-540.000000	1	100	1	540.000000	10.000000	0	0	0	0	0	0	0	0	0	0	0;
	58	0	0	540.000000	-540.000000	0	100	0	540.000000	10.000000	0	0	0	0	0	0	0	0	0	0	0;
	59	325.000000	0	520.000000	-450.000000	1	100	1	560.000000	10.000000	0	0	0	0	0	0	0	0	0	0	0;
	60	0	0	4000.000000	-2050.000000	0	100	0	4500.000000	10.000000	0	0	0	0	0	0	0	0	0	0	0;
	61	0	0	250.000000	-250.000000	0	100	0	0.000000	-0.000000	0	0	0	0	0	0	0	0	0	0	0;
];
mpc.branch = [
	1	3	0.010000	0.070000	0.013804	175.000000	250	250	0	0	1	-360	360;
	1	3	0.010000	0.070000	0.013804	175.000000	250	250	0	0	1	-360	360;
	2	24	0.014024	0.090000	0.018052	175.000000	250	250	0	0	1	-360	360;
	2	24	0.014024	0.090000	0.018052	175.000000	250	250	0	0	1	-360	360;
	3	24	0.006982	0.050000	0.010088	175.000000	250	250	0	0	1	-360	360;
	3	24	0.006982	0.050000	0.010088	175.000000	250	250	0	0	1	-360	360;
	25	4	0.030000	0.200000	0.030263	175.000000	250	250	0	0	1	-360	360;
	25	4	0.030000	0.200000	0.030263	175.000000	250	250	0	0	1	-360	360;
	5	7	0.010000	0.060000	0.012211	175.000000	250	250	0	0	1	-360	360;
	5	7	0.010000	0.060000	0.012211	175.000000	250	250	0	0	1	-360	360;
	5	9	0.014970	0.120000	0.024954	175.000000	250	250	0	0	1	-360	360;
	5	9	0.014970	0.120000	0.024954	175.000000	250	250	0	0	1	-360	360;
	6	8	0.037988	0.280000	0.059995	175.000000	250	250	0	0	1	-360	360;
	6	8	0.037988	0.280000	0.059995	175.000000	250	250	0	0	1	-360	360;
	6	9	0.050000	0.300000	0.059995	175.000000	250	250	0	0	1	-360	360;
	7	8	0.010000	0.080000	0.015928	175.000000	250	250	0	0	1	-360	360;
	7	8	0.010000	0.080000	0.015928	175.000000	250	250	0	0	1	-360	360;
	10	11	0.012004	0.090000	0.015205	250.000000	250	250	0	0	1	-360	360;
	10	11	0.012004	0.090000	0.015205	250.000000	250	250	0	0	1	-360	360;
	26	23	0.001000	0.008000	0.201062	700.000000	250	250	0	0	1	-360	360;
	26	27	0.006000	0.060000	1.799488	700.000000	250	250	0	0	1	-360	360;
	26	28	0.004000	0.040000	1.201344	700.000000	250	250	0	0	1	-360	360;
	26	12	0.005000	0.045000	1.402400	700.000000	250	250	0	0	1	-360	360;
	23	28	0.004000	0.035000	1.050560	700.000000	250	250	0	0	1	-360	360;
	23	12	0.005000	0.050000	1.497920	700.000000	250	250	0	0	1	-360	360;
	27	29	0.004000	0.040000	1.201344	700.000000	250	250	0	0	1	-360	360;
	27	30	0.010000	0.100000	3.000864	700.000000	250	250	0	0	1	-360	360;
	30	15	0	-0.040000	0	700.000000	250	250	0	0	1	-360	360;
	28	31	0.004000	0.040000	1.201344	700.000000	250	250	0	0	1	-360	360;
	28	31	0.004000	0.040000	1.201344	700.000000	250	250	0	0	1	-360	360;
	31	29	0.001000	0.010000	0.301594	700.000000	250	250	0	0	1	-360	360;
	31	32	0.006000	0.080000	2.397664	700.000000	250	250	0	0	1	-360	360;
	32	14	0	-0.040000	0	700.000000	250	250	0	0	1	-360	360;
	31	33	0.006000	0.080000	2.397664	700.000000	250	250	0	0	1	-360	360;
	33	14	0	-0.040000	0	700.000000	250	250	0	0	1	-360	360;
	29	34	0.010000	0.066669	2.000576	700.000000	250	250	0	0	1	-360	360;
	34	15	0	-0.026669	0	700.000000	250	250	0	0	1	-360	360;
	29	35	0.006000	0.080000	2.397664	700.000000	250	250	0	0	1	-360	360;
	35	36	0	-0.030000	0	700.000000	250	250	0	0	1	-360	360;
	14	36	0.003000	0.030000	0.899744	700.000000	250	250	0	0	1	-360	360;
	14	20	0.006000	0.045000	1.301888	700.000000	250	250	0	0	1	-360	360;
	15	16	0.002000	0.015000	0.497632	700.000000	250	250	0	0	1	-360	360;
	15	36	0.002000	0.020000	0.598176	700.000000	250	250	0	0	1	-360	360;
	16	36	0.001000	0.010000	0.301594	700.000000	250	250	0	0	1	-360	360;
	16	17	0.001000	0.010000	0.301594	700.000000	250	250	0	0	1	-360	360;
	16	18	0.002000	0.020000	0.598176	700.000000	250	250	0	0	1	-360	360;
	36	37	0.002000	0.020000	0.598176	700.000000	250	250	0	0	1	-360	360;
	36	37	0.002000	0.020000	0.598176	700.000000	250	250	0	0	1	-360	360;
	37	19	0.004000	0.040000	1.201344	700.000000	250	250	0	0	1	-360	360;
	37	19	0.004000	0.040000	1.201344	700.000000	250	250	0	0	1	-360	360;
	37	21	0.011000	0.080000	2.397664	700.000000	250	250	0	0	1	-360	360;
	17	18	0.001000	0.015000	0.497632	700.000000	250	250	0	0	1	-360	360;
	20	21	0.002000	0.020000	0.598176	700.000000	250	250	0	0	1	-360	360;
	21	22	0.003000	0.030000	0.899744	700.000000	250	250	0	0	1	-360	360;
	21	22	0.003000	0.030000	0.899744	700.000000	250	250	0	0	1	-360	360;
	12	13	0.003000	0.030000	3.000864	700.000000	250	250	0	0	1	-360	360;
	12	13	0.003000	0.030000	3.000864	700.000000	250	250	0	0	1	-360	360;
	2	38	0	0.018750	0	800	250	250	0	0	1	-360	360;
	3	39	0	0.025000	0	600	250	250	0	0	1	-360	360;
	24	40	0	0.021429	0	700	250	250	0	0	1	-360	360;
	25	41	0	0.025000	0	600	250	250	0	0	1	-360	360;
	4	42	0	0.060000	0	1250	250	250	0	0	1	-360	360;
	6	43	0	0.037500	0	400	250	250	0	0	1	-360	360;
	7	44	0	0.075000	0	1200	250	250	0	0	1	-360	360;
	11	45	0	0.017647	0	850	250	250	0	0	1	-360	360;
	26	46	0	0.015000	0	1000	250	250	0	0	1	-360	360;
	23	47	0	0.018750	0	800	250	250	0	0	1	-360	360;
	27	48	0	0.050000	0	300	250	250	0	0	1	-360	360;
	31	49	0	0.042857	0	1350	250	250	0	0	1	-360	360;
	14	50	0	0.017391	0	575	250	250	0	0	1	-360	360;
	15	51	0	0.021429	0	700	250	250	0	0	1	-360	360;
	18	52	0	0.025000	0	600	250	250	0	0	1	-360	360;
	18	53	0	0.025000	0	600	250	250	0	0	1	-360	360;
	19	54	0	0.021429	0	700	250	250	0	0	1	-360	360;
	19	55	0	0.021429	0	700	250	250	0	0	1	-360	360;
	21	56	0	0.025000	0	600	250	250	0	0	1	-360	360;
	22	57	0	0.025000	0	600	250	250	0	0	1	-360	360;
	22	58	0	0.025000	0	600	250	250	0	0	1	-360	360;
	12	59	0	0.030000	0	500	250	250	0	0	1	-360	360;
	13	60	0	0.003333	0	4500	250	250	0	0	1	-360	360;
	26	1	0	0.008000	0	1250	250	250	0.892860	0	1	-360	360;
	23	2	0	0.008000	0	1250	250	250	0.892860	0	1	-360	360;
	28	4	0	0.012000	0	833.300000	250	250	0.934580	0	1	-360	360;
	31	10	0	0.012000	0	833.300000	250	250	0.952380	0	1	-360	360;
	36	8	0	0.010000	0	1000	250	250	0	0	1	-360	360;
	36	8	0	0.010000	0	1000	250	250	0	0	1	-360	360;
	37	9	0	0.010000	0	1000	250	250	0	0	1	-360	360;
	37	9	0	0.010000	0	1000	250	250	0	0	1	-360	360;
	5	61	0	0.025000	0	1200	250	250	0	0	1	-360	360;
];
